****** HSPICE -- N-2017.12 linux64 (Nov 21 2017) ******
 Input File: test.sp
 lic:
 lic: FLEXlm: SDK_11.6.8.3
 lic: USER:   vlsi1812             HOSTNAME: vlsicad9
 lic: HOSTID: "e61f1348decb"       PID:      12174
 lic: Using FLEXlm license file:
 lic: 26585@lsncku
 lic: Checkout 1 hspice
 lic: License/Maintenance for hspice will expire on 14-may-2019/2017.12
 lic: 72(in_use)/90(total) FLOATING license(s) on SERVER 26585@lsncku
 lic:
 init: begin read circuit files, cpu clock= 2.90E-01
       option search = /usr/cad/synopsys/hspice/cur/hspice/parts/ad
       option search = /usr/cad/synopsys/hspice/cur/hspice/parts/behave
       option search = /usr/cad/synopsys/hspice/cur/hspice/parts/bjt
       option search = /usr/cad/synopsys/hspice/cur/hspice/parts/burr_b
                         rn
       option search = /usr/cad/synopsys/hspice/cur/hspice/parts/comlin
                         ear
       option search = /usr/cad/synopsys/hspice/cur/hspice/parts/dio
       option search = /usr/cad/synopsys/hspice/cur/hspice/parts/fet
       option search = /usr/cad/synopsys/hspice/cur/hspice/parts/lin_te
                         ch
       option search = /usr/cad/synopsys/hspice/cur/hspice/parts/pci
       option search = /usr/cad/synopsys/hspice/cur/hspice/parts/signet
       option search = /usr/cad/synopsys/hspice/cur/hspice/parts/ti
       option search = /usr/cad/synopsys/hspice/cur/hspice/parts/tline
       option search = /usr/cad/synopsys/hspice/cur/hspice/parts/xilinx
       option runlvl
       option post
 init: end read circuit files, cpu clock= 2.90E-01 peak memory=     284 mb
 init: begin check errors, cpu clock= 2.90E-01
 init: end check errors, cpu clock= 3.00E-01 peak memory=     285 mb
 init: begin setup matrix, pivot=     0 cpu clock= 3.00E-01
       establish matrix -- done, cpu clock= 3.00E-01 peak memory=     285 mb
       re-order matrix -- done, cpu clock= 3.00E-01 peak memory=     285 mb
 init: end setup matrix, cpu clock= 3.00E-01 peak memory=     285 mb
 dcop: begin dcop, cpu clock= 3.00E-01
 dcop: end dcop, cpu clock= 3.00E-01 peak memory=     285 mb tot_iter=       7
 output: test.tr0
 sweep: tran tran0    begin, stop_t=  2.50E-08 #sweeps= 501 cpu clock= 3.10E-01
 tran: time= 2.5500E-09 tot_iter=     175 conv_iter=      67 cpu clock= 3.10E-01
 tran: time= 5.0068E-09 tot_iter=     364 conv_iter=     137 cpu clock= 3.20E-01
 tran: time= 7.5170E-09 tot_iter=     539 conv_iter=     205 cpu clock= 3.30E-01
 tran: time= 1.0300E-08 tot_iter=     703 conv_iter=     268 cpu clock= 3.30E-01
 tran: time= 1.2559E-08 tot_iter=     867 conv_iter=     327 cpu clock= 3.40E-01
 tran: time= 1.5100E-08 tot_iter=    1036 conv_iter=     389 cpu clock= 3.40E-01
 tran: time= 1.7500E-08 tot_iter=    1201 conv_iter=     452 cpu clock= 3.50E-01
 tran: time= 2.0000E-08 tot_iter=    1386 conv_iter=     521 cpu clock= 3.60E-01
 tran: time= 2.2550E-08 tot_iter=    1567 conv_iter=     590 cpu clock= 3.70E-01
 tran: time= 2.5000E-08 tot_iter=    1733 conv_iter=     652 cpu clock= 3.70E-01
 sweep: tran tran0    end, cpu clock= 3.70E-01 peak memory=     285 mb
>info:         ***** hspice job concluded
 lic: Release hspice token(s)
