****** HSPICE -- N-2017.12 linux64 (Nov 21 2017) ******
 Input File: half_adder_testbench.sp
 lic:
 lic: FLEXlm: SDK_11.6.8.3
 lic: USER:   vlsi1812             HOSTNAME: vlsicad9
 lic: HOSTID: "e61f1348decb"       PID:      20389
 lic: Using FLEXlm license file:
 lic: 26585@lsncku
 lic: Checkout 1 hspice
 lic: License/Maintenance for hspice will expire on 14-may-2019/2017.12
 lic: 90(in_use)/90(total) FLOATING license(s) on SERVER 26585@lsncku
 lic:
 lic: Release hspice token(s)
